<?xml version="1.0" encoding="utf-8"?>
<!DOCTYPE population SYSTEM "http://www.matsim.org/files/dtd/population_v5.dtd">
 
<population>

<!-- ====================================================================== -->

	<person id="passenger_0" employed="no">
		<plan selected="yes">
			<act type="dummy" link="114" end_time="00:00:00" />
			<leg mode="ride_share_passenger" dep_time="00:00:00" trav_time="00:01:00" arr_time="00:01:00">
				<route/>
			</leg> 
			<act type="dummy" link="349"/>
		</plan>
	</person>

	<person id="passenger_1" employed="no">
		<plan selected="yes">
			<act type="dummy" link="144" end_time="00:05:00" />
			<leg mode="ride_share_driver" dep_time="00:01:00" trav_time="00:13:00" arr_time="00:14:00">
				<route/>
			</leg> 
			<act type="dummy" link="437" end_time="00:18:00" /><leg
				mode="car" arr_time="00:35:00" dep_time="00:18:00" trav_time="00:17:00">
	<route></route>
</leg>
			<act type="dummy" end_time="00:38:00" link="213" /><leg
				mode="ride_share_driver" arr_time="00:48:00" dep_time="00:38:00" trav_time="00:10:00">
	<route>route</route>
</leg>
			<act type="dummy" link="343" />
		</plan>
	</person>

	<person id="passenger_2" employed="no">
		<plan selected="yes">
			<act type="dummy" link="223" end_time="00:10:00" />
			<leg mode="ride_share_passenger" dep_time="00:10:00" trav_time="00:01:00" arr_time="00:11:00">
				<route/>
			</leg> 
			<act type="dummy" link="347"/>
		</plan>
	</person>

	<person id="passenger_3" employed="no">
		<plan selected="yes">
			<act type="dummy" link="234" end_time="00:05:00" />
			<leg mode="ride_share_driver" dep_time="00:05:00" trav_time="00:20:00" arr_time="00:25:00">
				<route/>
			</leg> 
			<act type="dummy" link="119" end_time="00:30:00" /><leg
				mode="ride_share_driver" arr_time="00:38:00" dep_time="00:30:00" trav_time="00:08:00">
	<route>route</route>
</leg>
			<act type="dummy" link="234" />
		</plan>
	</person>

	<person id="passenger_4" employed="no">
		<plan selected="yes">
			<act type="dummy" link="314" end_time="00:20:00" />
			<leg mode="ride_share_passenger" dep_time="00:20:00" trav_time="00:01:00" arr_time="00:21:00">
				<route/>
			</leg> 
			<act type="dummy" link="260"/>
		</plan>
	</person>

	<person id="passenger_5" employed="no">
		<plan selected="yes">
			<act type="dummy" link="333" end_time="00:25:00" />
			<leg mode="car" dep_time="00:20:00" trav_time="00:06:00" arr_time="00:26:00">
			</leg> 
			<act type="dummy" link="438"></act>
		</plan>
	</person>

	<person id="passenger_6" employed="no">
		<plan selected="yes">
			<act type="dummy" link="325" end_time="00:30:00" />
			<leg mode="ride_share_passenger" dep_time="00:30:00" trav_time="00:01:00" arr_time="00:31:00">
				<route/>
			</leg> 
			<act type="dummy" link="111"/>
		</plan>
	</person>

	<person id="passenger_7" employed="no">
		<plan selected="yes">
			<act type="dummy" link="412" end_time="00:08:00" />
			<leg mode="ride_share_driver" dep_time="00:08:00" trav_time="00:12:00" arr_time="00:20:00">
				<route/>
			</leg> 
			<act type="dummy" link="318" end_time="00:28:00"></act>
			<leg mode="ride_share_driver" arr_time="00:38:00" dep_time="00:28:00"
				trav_time="00:10:00">
				<route>route</route>
			</leg>
			<act type="dummy" link="455" />
		</plan>
	</person>

	<person id="passenger_8" employed="no">
		<plan selected="yes">
			<act type="dummy" link="455" end_time="00:40:00" />
			<leg mode="ride_share_passenger" dep_time="00:40:00" trav_time="00:01:00" arr_time="00:41:00">
				<route/>
			</leg> 
			<act type="dummy" link="236"/>
		</plan>
	</person>

	<person id="passenger_9" employed="no">
		<plan selected="yes">
			<act type="dummy" link="139" end_time="00:45:00" />
			<leg mode="ride_share_passenger" dep_time="00:45:00" trav_time="00:01:00" arr_time="00:46:00">
				<route/>
			</leg> 
			<act type="dummy" link="330"/>
		</plan>
	</person>

<!-- ====================================================================== -->

</population>
