<?xml version="1.0" encoding="utf-8"?>
<!DOCTYPE population SYSTEM "http://www.matsim.org/files/dtd/population_v5.dtd">
 
<population>

<!-- ====================================================================== -->

	<person id="passenger_0" employed="no">
		<plan selected="yes">
			<act type="dummy" link="114" end_time="00:02:00" />
			<leg mode="ride_share_passenger" >
			</leg> 
			<act type="dummy" link="349" start_time="00:15:00"/>
		</plan>
	</person>

	<person id="passenger_1" employed="no">
		<plan selected="yes">
			<act type="dummy" link="144" end_time="00:01:00" />
			<leg mode="ride_share_driver" >
			</leg> 
			<act type="dummy" link="437" end_time="00:18:00" start_time="00:14:00"/><leg
				mode="ride_share_driver" >
</leg>
			<act type="dummy" link="343" start_time="00:38:00"/>
		</plan>
	</person>

	<person id="passenger_3" employed="no">
		<plan selected="yes">
			<act type="dummy" link="234" end_time="00:10:00" />
			<leg mode="ride_share_driver">
			</leg> 
			<act type="dummy" link="119" start_time="00:40:00"/>
		</plan>
	</person>

	<person id="passenger_4" employed="no">
		<plan selected="yes">
			<act type="dummy" link="314" end_time="00:20:00" />
			<leg mode="ride_share_passenger" >
			</leg> 
			<act type="dummy" link="260" start_time="00:21:00"/>
		</plan>
	</person>

	<person id="passenger_5" employed="no">
		<plan selected="yes">
			<act type="dummy" link="137" end_time="00:06:00" ></act><leg mode="ride_share_passenger">
			</leg> 
			<act type="dummy" link="438" start_time="00:26:00"></act>
		</plan>
	</person>

	<person id="passenger_6" employed="no">
		<plan selected="yes">
			<act type="dummy" link="325" end_time="00:30:00" />
			<leg mode="ride_share_passenger">
			</leg> 
			<act type="dummy" link="111" start_time="00:31:00"/>
		</plan>
	</person>

	<person id="passenger_7" employed="no">
		<plan selected="yes">
			<act type="dummy" link="412" end_time="00:08:00" />
			<leg mode="ride_share_passenger" >
			</leg> 
			<act type="dummy" link="318" end_time="00:28:00" start_time="00:20:00"></act>
			<leg mode="ride_share_passenger" >
			</leg>
			<act type="dummy" link="455" start_time="00:38:00"></act>
		</plan>
	</person>

	<person id="passenger_8" employed="no">
		<plan selected="yes">
			<act type="dummy" link="455" end_time="00:40:00" />
			<leg mode="ride_share_passenger" >
			</leg> 
			<act type="dummy" link="236" start_time="00:41:00"/>
		</plan>
	</person>

	<person id="passenger_9" employed="no">
		<plan selected="yes">
			<act type="dummy" link="139" end_time="00:45:00" />
			<leg mode="ride_share_passenger" >
			</leg> 
			<act type="dummy" link="330" start_time="00:46:00"/>
		</plan>
	</person>

<!-- ====================================================================== -->

</population>
